<?xml version="1.0" encoding="UTF-8"?>

<!-- generated on 2024-08-14 22:42:26 by Eclipse SUMO netconvert Version 1.20.0
<configuration xmlns:xsi="http://www.w3.org/2001/XMLSchema-instance" xsi:noNamespaceSchemaLocation="http://sumo.dlr.de/xsd/netconvertConfiguration.xsd">

    <input>
        <node-files value="C:\Sumo\bin\meu.nod.xml"/>
        <edge-files value="C:\Sumo\bin\meu.edg.xml"/>
    </input>

    <output>
        <output-file value="C:\Sumo\bin\meu.net.xml"/>
    </output>

</configuration>
-->

<net version="1.20" junctionCornerDetail="5" limitTurnSpeed="5.50" xmlns:xsi="http://www.w3.org/2001/XMLSchema-instance" xsi:noNamespaceSchemaLocation="http://sumo.dlr.de/xsd/net_file.xsd">

    <location netOffset="0.00,40.00" convBoundary="0.00,0.00,100.00,90.00" origBoundary="0.00,-40.00,100.00,50.00" projParameter="!"/>

    <edge id=":p1_0" function="internal">
        <lane id=":p1_0_0" index="0" speed="3.65" length="4.67" shape="0.00,41.60 -1.20,40.80 -1.60,40.00 -1.20,39.20 0.00,38.40"/>
    </edge>
    <edge id=":p2_0" function="internal">
        <lane id=":p2_0_0" index="0" speed="5.87" length="11.46" shape="95.30,38.40 98.61,38.84 99.97,40.15 99.39,42.33 96.87,45.39"/>
    </edge>
    <edge id=":p2_1" function="internal">
        <lane id=":p2_1_0" index="0" speed="3.65" length="4.67" shape="95.30,38.40 96.50,39.20 96.90,40.00 96.50,40.80 95.30,41.60"/>
    </edge>
    <edge id=":p3_0" function="internal">
        <lane id=":p3_0_0" index="0" speed="4.12" length="4.78" shape="51.13,91.13 49.94,92.08 49.08,92.21 48.57,91.52 48.40,90.00"/>
    </edge>
    <edge id=":p4_0" function="internal">
        <lane id=":p4_0_0" index="0" speed="6.51" length="9.03" shape="48.40,47.20 48.05,44.75 47.00,43.00 45.25,41.95 42.80,41.60"/>
    </edge>
    <edge id=":p4_1" function="internal">
        <lane id=":p4_1_0" index="0" speed="13.89" length="14.40" shape="48.40,47.20 48.40,32.80"/>
    </edge>
    <edge id=":p4_2" function="internal">
        <lane id=":p4_2_0" index="0" speed="7.33" length="11.73" shape="48.40,47.20 48.75,43.35 49.80,40.60 51.55,38.95 54.00,38.40"/>
    </edge>
    <edge id=":p4_3" function="internal">
        <lane id=":p4_3_0" index="0" speed="13.89" length="11.20" shape="54.00,41.60 42.80,41.60"/>
    </edge>
    <edge id=":p4_4" function="internal">
        <lane id=":p4_4_0" index="0" speed="7.33" length="2.51" shape="54.00,41.60 51.55,41.05"/>
    </edge>
    <edge id=":p4_5" function="internal">
        <lane id=":p4_5_0" index="0" speed="3.65" length="1.44" shape="54.00,41.60 52.80,40.80"/>
    </edge>
    <edge id=":p4_9" function="internal">
        <lane id=":p4_9_0" index="0" speed="7.33" length="9.21" shape="51.55,41.05 49.80,39.40 48.75,36.65 48.40,32.80"/>
    </edge>
    <edge id=":p4_10" function="internal">
        <lane id=":p4_10_0" index="0" speed="3.65" length="3.23" shape="52.80,40.80 52.40,40.00 52.80,39.20 54.00,38.40"/>
    </edge>
    <edge id=":p4_6" function="internal">
        <lane id=":p4_6_0" index="0" speed="6.51" length="9.03" shape="42.80,38.40 45.25,38.05 47.00,37.00 48.05,35.25 48.40,32.80"/>
    </edge>
    <edge id=":p4_7" function="internal">
        <lane id=":p4_7_0" index="0" speed="13.89" length="11.20" shape="42.80,38.40 54.00,38.40"/>
    </edge>
    <edge id=":p4_8" function="internal">
        <lane id=":p4_8_0" index="0" speed="3.65" length="1.44" shape="42.80,38.40 44.00,39.20"/>
    </edge>
    <edge id=":p4_11" function="internal">
        <lane id=":p4_11_0" index="0" speed="3.65" length="3.23" shape="44.00,39.20 44.40,40.00 44.00,40.80 42.80,41.60"/>
    </edge>

    <edge id="1to4" from="p1" to="p4" priority="-1">
        <lane id="1to4_0" index="0" speed="13.89" length="42.80" shape="0.00,38.40 42.80,38.40"/>
    </edge>
    <edge id="2to3" from="p2" to="p3" priority="-1">
        <lane id="2to3_0" index="0" speed="13.89" length="64.69" shape="96.87,45.39 51.13,91.13"/>
    </edge>
    <edge id="2to4" from="p2" to="p4" priority="-1">
        <lane id="2to4_0" index="0" speed="13.89" length="41.30" shape="95.30,41.60 54.00,41.60"/>
    </edge>
    <edge id="3to4" from="p3" to="p4" priority="-1">
        <lane id="3to4_0" index="0" speed="13.89" length="42.80" shape="48.40,90.00 48.40,47.20"/>
    </edge>
    <edge id="4to1" from="p4" to="p1" priority="-1">
        <lane id="4to1_0" index="0" speed="13.89" length="42.80" shape="42.80,41.60 0.00,41.60"/>
    </edge>
    <edge id="4to2" from="p4" to="p2" priority="-1">
        <lane id="4to2_0" index="0" speed="13.89" length="41.30" shape="54.00,38.40 95.30,38.40"/>
    </edge>
    <edge id="4to5" from="p4" to="p5" priority="-1">
        <lane id="4to5_0" index="0" speed="13.89" length="32.80" shape="48.40,32.80 48.40,0.00"/>
    </edge>

    <tlLogic id="p4" type="static" programID="0" offset="0">
        <phase duration="5" state="rrrGggGGg"/>
        <phase duration="3"  state="rrryyyyyy"/>
        <phase duration="5" state="GGGrrrrrr"/>
        <phase duration="3"  state="yyyrrrrrr"/>
    </tlLogic>

    <junction id="p1" type="priority" x="0.00" y="40.00" incLanes="4to1_0" intLanes=":p1_0_0" shape="0.00,40.00 0.00,43.20 0.00,40.00">
        <request index="0" response="0" foes="0" cont="0"/>
    </junction>
    <junction id="p2" type="priority" x="100.00" y="40.00" incLanes="4to2_0" intLanes=":p2_0_0 :p2_1_0" shape="95.30,36.80 95.30,43.20 96.02,43.32 96.16,43.47 96.16,43.67 96.02,43.94 95.74,44.26 98.00,46.52 100.63,43.55 102.02,41.12 102.19,39.23 101.12,37.88 98.83,37.07">
        <request index="0" response="00" foes="00" cont="0"/>
        <request index="1" response="00" foes="00" cont="0"/>
    </junction>
    <junction id="p3" type="priority" x="50.00" y="90.00" incLanes="2to3_0" intLanes=":p3_0_0" shape="52.26,92.26 50.00,90.00 46.80,90.00 46.95,92.21 47.41,93.68 48.17,94.43 49.23,94.44 50.59,93.72">
        <request index="0" response="0" foes="0" cont="0"/>
    </junction>
    <junction id="p4" type="traffic_light" x="50.00" y="40.00" incLanes="3to4_0 2to4_0 1to4_0" intLanes=":p4_0_0 :p4_1_0 :p4_2_0 :p4_3_0 :p4_9_0 :p4_10_0 :p4_6_0 :p4_7_0 :p4_11_0" shape="46.80,47.20 50.00,47.20 50.44,44.98 51.00,44.20 51.78,43.64 52.78,43.31 54.00,43.20 54.00,36.80 51.78,36.36 51.00,35.80 50.44,35.02 50.11,34.02 50.00,32.80 46.80,32.80 46.36,35.02 45.80,35.80 45.02,36.36 44.02,36.69 42.80,36.80 42.80,43.20 45.02,43.64 45.80,44.20 46.36,44.98 46.69,45.98">
        <request index="0" response="000001000" foes="100001000" cont="0"/>
        <request index="1" response="011011000" foes="011011000" cont="0"/>
        <request index="2" response="010011000" foes="010111000" cont="0"/>
        <request index="3" response="000000000" foes="100000111" cont="0"/>
        <request index="4" response="011000000" foes="011000110" cont="1"/>
        <request index="5" response="010000100" foes="010000100" cont="1"/>
        <request index="6" response="000000000" foes="000010010" cont="0"/>
        <request index="7" response="000000000" foes="000110110" cont="0"/>
        <request index="8" response="000001001" foes="000001001" cont="1"/>
    </junction>
    <junction id="p5" type="dead_end" x="50.00" y="0.00" incLanes="4to5_0" intLanes="" shape="46.80,0.00 50.00,0.00"/>

    <junction id=":p4_9_0" type="internal" x="51.55" y="41.05" incLanes=":p4_4_0 1to4_0" intLanes=":p4_1_0 :p4_2_0 :p4_6_0 :p4_7_0"/>
    <junction id=":p4_10_0" type="internal" x="52.80" y="40.80" incLanes=":p4_5_0 1to4_0 3to4_0" intLanes=":p4_2_0 :p4_7_0"/>
    <junction id=":p4_11_0" type="internal" x="44.00" y="39.20" incLanes=":p4_8_0 2to4_0 3to4_0" intLanes=":p4_0_0 :p4_3_0"/>

    <connection from="1to4" to="4to5" fromLane="0" toLane="0" via=":p4_6_0" tl="p4" linkIndex="6" dir="r" state="O"/>
    <connection from="1to4" to="4to2" fromLane="0" toLane="0" via=":p4_7_0" tl="p4" linkIndex="7" dir="s" state="O"/>
    <connection from="1to4" to="4to1" fromLane="0" toLane="0" via=":p4_8_0" tl="p4" linkIndex="8" dir="t" state="o"/>
    <connection from="2to3" to="3to4" fromLane="0" toLane="0" via=":p3_0_0" dir="l" state="M"/>
    <connection from="2to4" to="4to1" fromLane="0" toLane="0" via=":p4_3_0" tl="p4" linkIndex="3" dir="s" state="O"/>
    <connection from="2to4" to="4to5" fromLane="0" toLane="0" via=":p4_4_0" tl="p4" linkIndex="4" dir="l" state="o"/>
    <connection from="2to4" to="4to2" fromLane="0" toLane="0" via=":p4_5_0" tl="p4" linkIndex="5" dir="t" state="o"/>
    <connection from="3to4" to="4to1" fromLane="0" toLane="0" via=":p4_0_0" tl="p4" linkIndex="0" dir="r" state="o"/>
    <connection from="3to4" to="4to5" fromLane="0" toLane="0" via=":p4_1_0" tl="p4" linkIndex="1" dir="s" state="o"/>
    <connection from="3to4" to="4to2" fromLane="0" toLane="0" via=":p4_2_0" tl="p4" linkIndex="2" dir="l" state="o"/>
    <connection from="4to1" to="1to4" fromLane="0" toLane="0" via=":p1_0_0" dir="t" state="M"/>
    <connection from="4to2" to="2to3" fromLane="0" toLane="0" via=":p2_0_0" dir="l" state="M"/>
    <connection from="4to2" to="2to4" fromLane="0" toLane="0" via=":p2_1_0" dir="t" state="M"/>

    <connection from=":p1_0" to="1to4" fromLane="0" toLane="0" dir="t" state="M"/>
    <connection from=":p2_0" to="2to3" fromLane="0" toLane="0" dir="l" state="M"/>
    <connection from=":p2_1" to="2to4" fromLane="0" toLane="0" dir="t" state="M"/>
    <connection from=":p3_0" to="3to4" fromLane="0" toLane="0" dir="l" state="M"/>
    <connection from=":p4_0" to="4to1" fromLane="0" toLane="0" dir="r" state="M"/>
    <connection from=":p4_1" to="4to5" fromLane="0" toLane="0" dir="s" state="M"/>
    <connection from=":p4_2" to="4to2" fromLane="0" toLane="0" dir="l" state="M"/>
    <connection from=":p4_3" to="4to1" fromLane="0" toLane="0" dir="s" state="M"/>
    <connection from=":p4_4" to="4to5" fromLane="0" toLane="0" via=":p4_9_0" dir="l" state="m"/>
    <connection from=":p4_9" to="4to5" fromLane="0" toLane="0" dir="l" state="M"/>
    <connection from=":p4_5" to="4to2" fromLane="0" toLane="0" via=":p4_10_0" dir="t" state="m"/>
    <connection from=":p4_10" to="4to2" fromLane="0" toLane="0" dir="t" state="M"/>
    <connection from=":p4_6" to="4to5" fromLane="0" toLane="0" dir="r" state="M"/>
    <connection from=":p4_7" to="4to2" fromLane="0" toLane="0" dir="s" state="M"/>
    <connection from=":p4_8" to="4to1" fromLane="0" toLane="0" via=":p4_11_0" dir="t" state="m"/>
    <connection from=":p4_11" to="4to1" fromLane="0" toLane="0" dir="t" state="M"/>

</net>
