<?xml version="1.0" encoding="UTF-8"?>

<routes xmlns:xsi="http://www.w3.org/2001/XMLSchema-instance" xsi:noNamespaceSchemaLocation="http://sumo.dlr.de/xsd/routes_file.xsd">

    <vType id="car" accel="2.6" decel="4.5" sigma="0.5" length="5.0" minGap="2.5" maxSpeed="16.67" guiShape="passenger"/>

    <route id="route_1" edges="1to4 4to5"/>
    <route id="route_2" edges="2to4 4to1"/>
    <route id="route_3" edges="3to4 4to2"/>

    <vehicle id="vehicle_0" type="car" route="route_1" depart="0"/>
    <vehicle id="vehicle_1" type="car" route="route_2" depart="1"/>
    <vehicle id="vehicle_2" type="car" route="route_3" depart="2"/>
    <vehicle id="vehicle_3" type="car" route="route_1" depart="3"/>
    <vehicle id="vehicle_4" type="car" route="route_2" depart="4"/>
    <vehicle id="vehicle_5" type="car" route="route_3" depart="5"/>
    <vehicle id="vehicle_6" type="car" route="route_1" depart="6"/>
    <vehicle id="vehicle_7" type="car" route="route_2" depart="7"/>
    <vehicle id="vehicle_8" type="car" route="route_3" depart="8"/>
    <vehicle id="vehicle_9" type="car" route="route_1" depart="9"/>
    <vehicle id="vehicle_10" type="car" route="route_2" depart="10"/>
    <vehicle id="vehicle_11" type="car" route="route_3" depart="11"/>
    <vehicle id="vehicle_12" type="car" route="route_1" depart="12"/>
    <vehicle id="vehicle_13" type="car" route="route_2" depart="13"/>
    <vehicle id="vehicle_14" type="car" route="route_3" depart="14"/>
    <vehicle id="vehicle_15" type="car" route="route_1" depart="15"/>
    <vehicle id="vehicle_16" type="car" route="route_2" depart="16"/>
    <vehicle id="vehicle_17" type="car" route="route_3" depart="17"/>
    <vehicle id="vehicle_18" type="car" route="route_1" depart="18"/>
    <vehicle id="vehicle_19" type="car" route="route_2" depart="19"/>

</routes>
