<nodes>
  <node id="p1" x="0"   y="0" />
  <node id="p2" x="100" y="0" />
  <node id="p3" x="50"  y="50" />
  <node id="p4" x="50"  y="0" type="traffic_light" />
  <node id="p5" x="50"  y="-40" />
</nodes>