<?xml version="1.0" encoding="UTF-8"?>

<!-- generated on 2024-08-15 08:55:20 by Eclipse SUMO netconvert Version 1.20.0
<configuration xmlns:xsi="http://www.w3.org/2001/XMLSchema-instance" xsi:noNamespaceSchemaLocation="http://sumo.dlr.de/xsd/netconvertConfiguration.xsd">

    <input>
        <node-files value="C:\bin\test.nod.xml"/>
        <edge-files value="C:\bin\test.edg.xml"/>
    </input>

    <output>
        <output-file value="C:\bin\test.net.xml"/>
    </output>

</configuration>
-->

<net version="1.20" junctionCornerDetail="5" limitTurnSpeed="5.50" xmlns:xsi="http://www.w3.org/2001/XMLSchema-instance" xsi:noNamespaceSchemaLocation="http://sumo.dlr.de/xsd/net_file.xsd">

    <location netOffset="0.00,40.00" convBoundary="0.00,0.00,250.00,90.00" origBoundary="0.00,-40.00,250.00,50.00" projParameter="!"/>

    <edge id=":p1_0" function="internal">
        <lane id=":p1_0_0" index="0" speed="3.65" length="4.67" shape="-0.72,41.43 -1.43,40.18 -1.43,39.28 -0.72,38.75 0.72,38.57"/>
    </edge>
    <edge id=":p2_0" function="internal">
        <lane id=":p2_0_0" index="0" speed="6.08" length="7.76" shape="98.40,41.50 98.79,40.14 99.98,39.18 101.94,38.59 104.70,38.40"/>
    </edge>
    <edge id=":p2_1" function="internal">
        <lane id=":p2_1_0" index="0" speed="3.65" length="4.67" shape="98.40,41.50 99.20,40.30 100.00,39.90 100.80,40.30 101.60,41.50"/>
    </edge>
    <edge id=":p4_0" function="internal">
        <lane id=":p4_0_0" index="0" speed="7.44" length="16.40" shape="101.60,80.82 100.94,85.64 98.97,88.33 95.68,88.89 91.08,87.33"/>
    </edge>
    <edge id=":p4_1" function="internal">
        <lane id=":p4_1_0" index="0" speed="3.24" length="1.71" shape="101.60,80.82 99.89,80.82"/>
    </edge>
    <edge id=":p4_2" function="internal">
        <lane id=":p4_2_0" index="0" speed="3.65" length="1.44" shape="101.60,80.82 100.80,82.02"/>
    </edge>
    <edge id=":p4_6" function="internal">
        <lane id=":p4_6_0" index="0" speed="3.24" length="1.49" shape="99.89,80.82 98.40,80.82"/>
    </edge>
    <edge id=":p4_7" function="internal">
        <lane id=":p4_7_0" index="0" speed="3.65" length="3.23" shape="100.80,82.02 100.00,82.42 99.20,82.02 98.40,80.82"/>
    </edge>
    <edge id=":p4_3" function="internal">
        <lane id=":p4_3_0" index="0" speed="5.74" length="9.18" shape="92.51,84.46 95.09,85.34 96.93,85.03 98.03,83.52 98.40,80.82"/>
    </edge>
    <edge id=":p4_4" function="internal">
        <lane id=":p4_4_0" index="0" speed="5.74" length="9.18" shape="92.51,84.46 95.09,85.34 96.93,85.03 98.03,83.52 98.40,80.82"/>
    </edge>
    <edge id=":p4_5" function="internal">
        <lane id=":p4_5_0" index="0" speed="3.65" length="1.31" shape="92.51,84.46 93.16,85.60"/>
    </edge>
    <edge id=":p4_8" function="internal">
        <lane id=":p4_8_0" index="0" speed="3.65" length="3.37" shape="93.16,85.60 93.22,85.72 93.22,86.61 92.51,87.15 91.08,87.33"/>
    </edge>

    <edge id="1to4" from="p1" to="p4" priority="-1">
        <lane id="1to4_0" index="0" speed="13.89" length="102.63" shape="0.72,38.57 92.51,84.46"/>
    </edge>
    <edge id="2to3" from="p2" to="p3" priority="-1">
        <lane id="2to3_0" index="0" speed="13.89" length="145.30" shape="104.70,38.40 250.00,38.40"/>
    </edge>
    <edge id="2to4" from="p2" to="p4" priority="-1">
        <lane id="2to4_0" index="0" speed="13.89" length="39.32" shape="101.60,41.50 101.60,80.82"/>
    </edge>
    <edge id="4to1" from="p4" to="p1" priority="-1">
        <lane id="4to1_0" index="0" speed="13.89" length="102.63" shape="91.08,87.33 -0.72,41.43"/>
    </edge>
    <edge id="4to2" from="p4" to="p2" priority="-1">
        <lane id="4to2_0" index="0" speed="13.89" length="39.32" shape="98.40,80.82 98.40,41.50"/>
    </edge>
    <edge id="4to5" from="p4" to="p5" priority="-1">
        <lane id="4to5_0" index="0" speed="13.89" length="80.82" shape="98.40,80.82 98.40,0.00"/>
    </edge>

    <junction id="p1" type="priority" x="0.00" y="40.00" incLanes="4to1_0" intLanes=":p1_0_0" shape="-0.00,40.00 -1.43,42.86 0.00,40.00">
        <request index="0" response="0" foes="0" cont="0"/>
    </junction>
    <junction id="p2" type="priority" x="100.00" y="40.00" incLanes="4to2_0" intLanes=":p2_0_0 :p2_1_0" shape="96.80,41.50 103.20,41.50 103.37,40.67 103.57,40.38 103.87,40.17 104.24,40.04 104.70,40.00 104.70,36.80 102.29,36.93 100.31,37.32 98.78,37.97 97.68,38.89 97.02,40.06">
        <request index="0" response="00" foes="00" cont="0"/>
        <request index="1" response="00" foes="00" cont="0"/>
    </junction>
    <junction id="p3" type="dead_end" x="250.00" y="40.00" incLanes="2to3_0" intLanes="" shape="250.00,36.80 250.00,40.00"/>
    <junction id="p4" type="priority" x="100.00" y="90.00" incLanes="2to4_0 1to4_0" intLanes=":p4_0_0 :p4_6_0 :p4_7_0 :p4_3_0 :p4_4_0 :p4_8_0" shape="103.20,80.82 96.80,80.82 96.40,82.85 95.91,83.38 95.21,83.58 94.32,83.47 93.22,83.03 90.36,88.76 94.28,90.32 97.49,90.73 99.99,89.98 101.77,88.08 102.84,85.03">
        <request index="0" response="000000" foes="100000" cont="0"/>
        <request index="1" response="011000" foes="011000" cont="1"/>
        <request index="2" response="010000" foes="010000" cont="1"/>
        <request index="3" response="000000" foes="000010" cont="0"/>
        <request index="4" response="000000" foes="000110" cont="0"/>
        <request index="5" response="000001" foes="000001" cont="1"/>
    </junction>
    <junction id="p5" type="dead_end" x="100.00" y="0.00" incLanes="4to5_0" intLanes="" shape="96.80,0.00 100.00,0.00"/>

    <junction id=":p4_6_0" type="internal" x="99.89" y="80.82" incLanes=":p4_1_0 1to4_0" intLanes=":p4_3_0 :p4_4_0"/>
    <junction id=":p4_7_0" type="internal" x="100.80" y="82.02" incLanes=":p4_2_0 1to4_0" intLanes=":p4_4_0"/>
    <junction id=":p4_8_0" type="internal" x="93.16" y="85.60" incLanes=":p4_5_0 2to4_0" intLanes=":p4_0_0"/>

    <connection from="1to4" to="4to5" fromLane="0" toLane="0" via=":p4_3_0" dir="r" state="M"/>
    <connection from="1to4" to="4to2" fromLane="0" toLane="0" via=":p4_4_0" dir="r" state="M"/>
    <connection from="1to4" to="4to1" fromLane="0" toLane="0" via=":p4_5_0" dir="t" state="m"/>
    <connection from="2to4" to="4to1" fromLane="0" toLane="0" via=":p4_0_0" dir="l" state="M"/>
    <connection from="2to4" to="4to5" fromLane="0" toLane="0" via=":p4_1_0" dir="l" state="m"/>
    <connection from="2to4" to="4to2" fromLane="0" toLane="0" via=":p4_2_0" dir="t" state="m"/>
    <connection from="4to1" to="1to4" fromLane="0" toLane="0" via=":p1_0_0" dir="t" state="M"/>
    <connection from="4to2" to="2to3" fromLane="0" toLane="0" via=":p2_0_0" dir="l" state="M"/>
    <connection from="4to2" to="2to4" fromLane="0" toLane="0" via=":p2_1_0" dir="t" state="M"/>

    <connection from=":p1_0" to="1to4" fromLane="0" toLane="0" dir="t" state="M"/>
    <connection from=":p2_0" to="2to3" fromLane="0" toLane="0" dir="l" state="M"/>
    <connection from=":p2_1" to="2to4" fromLane="0" toLane="0" dir="t" state="M"/>
    <connection from=":p4_0" to="4to1" fromLane="0" toLane="0" dir="l" state="M"/>
    <connection from=":p4_1" to="4to5" fromLane="0" toLane="0" via=":p4_6_0" dir="l" state="m"/>
    <connection from=":p4_6" to="4to5" fromLane="0" toLane="0" dir="l" state="M"/>
    <connection from=":p4_2" to="4to2" fromLane="0" toLane="0" via=":p4_7_0" dir="t" state="m"/>
    <connection from=":p4_7" to="4to2" fromLane="0" toLane="0" dir="t" state="M"/>
    <connection from=":p4_3" to="4to5" fromLane="0" toLane="0" dir="r" state="M"/>
    <connection from=":p4_4" to="4to2" fromLane="0" toLane="0" dir="r" state="M"/>
    <connection from=":p4_5" to="4to1" fromLane="0" toLane="0" via=":p4_8_0" dir="t" state="m"/>
    <connection from=":p4_8" to="4to1" fromLane="0" toLane="0" dir="t" state="M"/>

</net>
