<?xml version="1.0" encoding="UTF-8"?>

<routes xmlns:xsi="http://www.w3.org/2001/XMLSchema-instance" xsi:noNamespaceSchemaLocation="http://sumo.dlr.de/xsd/routes_file.xsd">

    <vType id="car" accel="2.6" decel="4.5" sigma="0.5" length="5.0" minGap="2.5" maxSpeed="16.67" guiShape="passenger"/>

    <route id="route_1" edges="1to4 4to2"/>

    <vehicle id="vehicle_0" type="car" route="route_1" depart="0"/>
    <vehicle id="vehicle_1" type="car" route="route_1" depart="10"/>
    <vehicle id="vehicle_2" type="car" route="route_1" depart="20"/>
    <vehicle id="vehicle_3" type="car" route="route_1" depart="30"/>
    <vehicle id="vehicle_4" type="car" route="route_1" depart="40"/>
    <vehicle id="vehicle_5" type="car" route="route_1" depart="50"/>
    <vehicle id="vehicle_6" type="car" route="route_1" depart="60"/>
    <vehicle id="vehicle_7" type="car" route="route_1" depart="70"/>
    <vehicle id="vehicle_8" type="car" route="route_1" depart="80"/>
    <vehicle id="vehicle_9" type="car" route="route_1" depart="90"/>
    <vehicle id="vehicle_10" type="car" route="route_1" depart="100"/>
    <vehicle id="vehicle_11" type="car" route="route_1" depart="110"/>
    <vehicle id="vehicle_12" type="car" route="route_1" depart="120"/>
    <vehicle id="vehicle_13" type="car" route="route_1" depart="130"/>
    <vehicle id="vehicle_14" type="car" route="route_1" depart="140"/>
    <vehicle id="vehicle_15" type="car" route="route_1" depart="150"/>
    <vehicle id="vehicle_16" type="car" route="route_1" depart="160"/>
    <vehicle id="vehicle_17" type="car" route="route_1" depart="170"/>
    <vehicle id="vehicle_18" type="car" route="route_1" depart="180"/>
    <vehicle id="vehicle_19" type="car" route="route_1" depart="190"/>

</routes>
